/*--------------------------------*- C++ -*----------------------------------*\
  =========                 |
  \\      /  F ield         | OpenFOAM: The Open Source CFD Toolbox
   \\    /   O peration     | Website:  https://openfoam.org
    \\  /    A nd           | Version:  9
     \\/     M anipulation  |
\*---------------------------------------------------------------------------*/
FoamFile
{
    format      ascii;
    class       volScalarField;
    object      p;
}
// * * * * * * * * * * * * * * * * * * * * * * * * * * * * * * * * * * * * * //

dimensions      [1 -1 -2 0 0 0 0];

internalField   uniform 101325;

boundaryField
{
    inlet
    {
        type            fixedValue;
        value           uniform 1013250;
    }

    outlet1
    {
        type            fixedValue;
        value           uniform 101325;
    }
    outlet2
    {
        type            fixedValue;
        value           uniform 101325;
    }
    outlet3
    {
        type            zeroGradient;
    }

    Wall1
    {
        type            wedge;
    }

    Wall2
    {
        type            wedge;
    }

    nozzleWall
    {
        type            zeroGradient;
    }


}

// ************************************************************************* //
