/*--------------------------------*- C++ -*----------------------------------*\
  =========                 |
  \\      /  F ield         | OpenFOAM: The Open Source CFD Toolbox
   \\    /   O peration     | Website:  https://openfoam.org
    \\  /    A nd           | Version:  9
     \\/     M anipulation  |
\*---------------------------------------------------------------------------*/
FoamFile
{
    format      binary;
    class       polyBoundaryMesh;
    location    "1e-06/polyMesh";
    object      boundary;
}
// * * * * * * * * * * * * * * * * * * * * * * * * * * * * * * * * * * * * * //

7
(
    inlet
    {
        type            patch;
        nFaces          30;
        startFace       170542;
    }
    nozzleWall
    {
        type            wall;
        inGroups        List<word> 1(wall);
        nFaces          148;
        startFace       170572;
    }
    outlet1
    {
        type            patch;
        nFaces          160;
        startFace       170720;
    }
    outlet2
    {
        type            patch;
        nFaces          440;
        startFace       170880;
    }
    outlet3
    {
        type            patch;
        nFaces          190;
        startFace       171320;
    }
    Wall1
    {
        type            wedge;
        inGroups        List<word> 1(wedge);
        nFaces          85640;
        startFace       171510;
    }
    Wall2
    {
        type            wedge;
        inGroups        List<word> 1(wedge);
        nFaces          85640;
        startFace       257150;
    }
)

// ************************************************************************* //
